$ chexa8_cantilever_modal.bdf
$ Cantilever bar: 5x2x2 CHEXA8, L=1m, a=0.01m square cross-section
$ E=200 GPa, rho=7850 kg/m^3
$
$ Analytical first bending (Euler-Bernoulli cantilever):
$   f1 = 1.8751^2 * sqrt(EI/rhoA) / (2*pi*L^2)
$   I = a^4/12 = 8.333e-10 m^4,  A = a^2 = 1e-4 m^2
$   EI/rhoA = 212.3 m^4/s^2  =>  f1 = 8.15 Hz
$   Modes 1 and 2 are degenerate (bending in Y and Z planes).
SOL 103
CEND
SUBCASE 1
  LABEL = CHEXA8 CANTILEVER MODAL
  SPC = 1
  METHOD = 1
  EIGENVECTOR(PLOT) = ALL
BEGIN BULK
MAT1,1,2.0000E+11,,,7850.0000
PSOLID,1,1
EIGRL,1,0.0,,3

GRID,1,,0.0000,-0.00500,-0.00500
GRID,2,,0.2000,-0.00500,-0.00500
GRID,3,,0.4000,-0.00500,-0.00500
GRID,4,,0.6000,-0.00500,-0.00500
GRID,5,,0.8000,-0.00500,-0.00500
GRID,6,,1.0000,-0.00500,-0.00500
GRID,7,,0.0000,0.00000,-0.00500
GRID,8,,0.2000,0.00000,-0.00500
GRID,9,,0.4000,0.00000,-0.00500
GRID,10,,0.6000,0.00000,-0.00500
GRID,11,,0.8000,0.00000,-0.00500
GRID,12,,1.0000,0.00000,-0.00500
GRID,13,,0.0000,0.00500,-0.00500
GRID,14,,0.2000,0.00500,-0.00500
GRID,15,,0.4000,0.00500,-0.00500
GRID,16,,0.6000,0.00500,-0.00500
GRID,17,,0.8000,0.00500,-0.00500
GRID,18,,1.0000,0.00500,-0.00500
GRID,19,,0.0000,-0.00500,0.00000
GRID,20,,0.2000,-0.00500,0.00000
$ ... 34 like lines cut

CHEXA,1,1,1,2,8,7,19,20,+
+,26,25
CHEXA,2,1,2,3,9,8,20,21,+
+,27,26
CHEXA,3,1,3,4,10,9,21,22,+
+,28,27
CHEXA,4,1,4,5,11,10,22,23,+
+,29,28
CHEXA,5,1,5,6,12,11,23,24,+
+,30,29
CHEXA,6,1,7,8,14,13,25,26,+
+,32,31
CHEXA,7,1,8,9,15,14,26,27,+
+,33,32
CHEXA,8,1,9,10,16,15,27,28,+
+,34,33
CHEXA,9,1,10,11,17,16,28,29,+
+,35,34
CHEXA,10,1,11,12,18,17,29,30,+
+,36,35
CHEXA,11,1,19,20,26,25,37,38,+
+,44,43
CHEXA,12,1,20,21,27,26,38,39,+
+,45,44
CHEXA,13,1,21,22,28,27,39,40,+
+,46,45
CHEXA,14,1,22,23,29,28,40,41,+
+,47,46
CHEXA,15,1,23,24,30,29,41,42,+
+,48,47
CHEXA,16,1,25,26,32,31,43,44,+
+,50,49
CHEXA,17,1,26,27,33,32,44,45,+
+,51,50
CHEXA,18,1,27,28,34,33,45,46,+
+,52,51
CHEXA,19,1,28,29,35,34,46,47,+
+,53,52
CHEXA,20,1,29,30,36,35,47,48,+
+,54,53

SPC1,1,123456,1,7,13,19,25,31,37,43,49
ENDDATA
