$ cquad4_cantilever_bending_mindlin.bdf
$ Refined in-plane CQUAD4 cantilever bending benchmark
$ Analytical reference: delta = P L^3 / (3 E I), I = t h^3 / 12
SOL 101
CEND
SUBCASE 1
  LABEL = CQUAD4 CANTILEVER MINDLIN
  LOAD = 1
  SPC = 1
  DISPLACEMENT = ALL
  STRESS = ALL
BEGIN BULK
PARAM,CSVOUT,YES
PARAM,SHELLFORM,MINDLIN
MAT1,1,1000000.0,,0.3
PSHELL,1,1,0.1
GRID,1,,0,0,0.0
GRID,2,,0.416666666667,0,0.0
GRID,3,,0.833333333333,0,0.0
GRID,4,,1.25,0,0.0
GRID,5,,1.66666666667,0,0.0
GRID,6,,2.08333333333,0,0.0
GRID,7,,2.5,0,0.0
GRID,8,,2.91666666667,0,0.0
GRID,9,,3.33333333333,0,0.0
GRID,10,,3.75,0,0.0
GRID,11,,4.16666666667,0,0.0
GRID,12,,4.58333333333,0,0.0
GRID,13,,5,0,0.0
GRID,14,,5.41666666667,0,0.0
GRID,15,,5.83333333333,0,0.0
GRID,16,,6.25,0,0.0
GRID,17,,6.66666666667,0,0.0
GRID,18,,7.08333333333,0,0.0
GRID,19,,7.5,0,0.0
GRID,20,,7.91666666667,0,0.0
$ ... 155 like lines cut
CQUAD4,1,1,1,2,27,26
CQUAD4,2,1,2,3,28,27
CQUAD4,3,1,3,4,29,28
CQUAD4,4,1,4,5,30,29
CQUAD4,5,1,5,6,31,30
CQUAD4,6,1,6,7,32,31
CQUAD4,7,1,7,8,33,32
CQUAD4,8,1,8,9,34,33
CQUAD4,9,1,9,10,35,34
CQUAD4,10,1,10,11,36,35
CQUAD4,11,1,11,12,37,36
CQUAD4,12,1,12,13,38,37
CQUAD4,13,1,13,14,39,38
CQUAD4,14,1,14,15,40,39
CQUAD4,15,1,15,16,41,40
CQUAD4,16,1,16,17,42,41
CQUAD4,17,1,17,18,43,42
CQUAD4,18,1,18,19,44,43
CQUAD4,19,1,19,20,45,44
CQUAD4,20,1,20,21,46,45
$ ... 124 like lines cut
SPC1,1,123456,1
SPC1,1,123456,26
SPC1,1,123456,51
SPC1,1,123456,76
SPC1,1,123456,101
SPC1,1,123456,126
SPC1,1,123456,151
FORCE,1,25,0,50,0.0,1.0,0.0
FORCE,1,175,0,50,0.0,1.0,0.0
ENDDATA
