$ cquad4_closed_tube_bending_mitc4.bdf
$ Refined closed square-tube shell cantilever benchmark
$ Analytical reference uses shell midsurface inertia: I = 2/3 * t * W^3
SOL 101
CEND
SUBCASE 1
  LABEL = CQUAD4 CLOSED TUBE MITC4
  LOAD = 1
  SPC = 1
  DISPLACEMENT = ALL
  STRESS = ALL
BEGIN BULK
PARAM,CSVOUT,YES
PARAM,SHELLFORM,MITC4
MAT1,1,70000000000.0,,0.33
PSHELL,1,1,0.0005
GRID,1,,0,0,0
GRID,2,,0,0.00333333333333,0
GRID,3,,0,0.00666666666667,0
GRID,4,,0,0.01,0
GRID,5,,0,0.0133333333333,0
GRID,6,,0,0.0166666666667,0
GRID,7,,0,0.02,0
GRID,8,,0,0.02,0.00333333333333
GRID,9,,0,0.02,0.00666666666667
GRID,10,,0,0.02,0.01
GRID,11,,0,0.02,0.0133333333333
GRID,12,,0,0.02,0.0166666666667
GRID,13,,0,0.02,0.02
GRID,14,,0,0.0166666666667,0.02
GRID,15,,0,0.0133333333333,0.02
GRID,16,,0,0.01,0.02
GRID,17,,0,0.00666666666667,0.02
GRID,18,,0,0.00333333333333,0.02
GRID,19,,0,0,0.02
GRID,20,,0,0,0.0166666666667
$ ... 1348 like lines cut
CQUAD4,1,1,1,2,26,25
CQUAD4,2,1,2,3,27,26
CQUAD4,3,1,3,4,28,27
CQUAD4,4,1,4,5,29,28
CQUAD4,5,1,5,6,30,29
CQUAD4,6,1,6,7,31,30
CQUAD4,7,1,7,8,32,31
CQUAD4,8,1,8,9,33,32
CQUAD4,9,1,9,10,34,33
CQUAD4,10,1,10,11,35,34
CQUAD4,11,1,11,12,36,35
CQUAD4,12,1,12,13,37,36
CQUAD4,13,1,13,14,38,37
CQUAD4,14,1,14,15,39,38
CQUAD4,15,1,15,16,40,39
CQUAD4,16,1,16,17,41,40
CQUAD4,17,1,17,18,42,41
CQUAD4,18,1,18,19,43,42
CQUAD4,19,1,19,20,44,43
CQUAD4,20,1,20,21,45,44
$ ... 1324 like lines cut
SPC1,1,123456,1,THRU,24
FORCE,1,1345,0,4.16666666667,0.0,0.0,1.0
FORCE,1,1346,0,4.16666666667,0.0,0.0,1.0
FORCE,1,1347,0,4.16666666667,0.0,0.0,1.0
FORCE,1,1348,0,4.16666666667,0.0,0.0,1.0
FORCE,1,1349,0,4.16666666667,0.0,0.0,1.0
FORCE,1,1350,0,4.16666666667,0.0,0.0,1.0
FORCE,1,1351,0,4.16666666667,0.0,0.0,1.0
FORCE,1,1352,0,4.16666666667,0.0,0.0,1.0
FORCE,1,1353,0,4.16666666667,0.0,0.0,1.0
FORCE,1,1354,0,4.16666666667,0.0,0.0,1.0
FORCE,1,1355,0,4.16666666667,0.0,0.0,1.0
FORCE,1,1356,0,4.16666666667,0.0,0.0,1.0
FORCE,1,1357,0,4.16666666667,0.0,0.0,1.0
FORCE,1,1358,0,4.16666666667,0.0,0.0,1.0
FORCE,1,1359,0,4.16666666667,0.0,0.0,1.0
FORCE,1,1360,0,4.16666666667,0.0,0.0,1.0
FORCE,1,1361,0,4.16666666667,0.0,0.0,1.0
FORCE,1,1362,0,4.16666666667,0.0,0.0,1.0
FORCE,1,1363,0,4.16666666667,0.0,0.0,1.0
FORCE,1,1364,0,4.16666666667,0.0,0.0,1.0
$ ... 4 like lines cut
ENDDATA
