$ ctetra10_free_thermal.bdf
$ Single CTETRA10 — free thermal expansion with zero stress
$
$ Geometry: tet with corners at (0,0,0), (2,0,0), (0,2,0), (0,0,2)
$   plus midside nodes at edge midpoints
$ Material: E = 1e6 Pa, nu = 0.3 (nu not needed for zero-stress check),
$           alpha = 1e-5 /°C
$ Load:     uniform T = 100 °C (ΔT = 100 °C, T_ref = 0)
$
$ Minimal BCs — all compatible with free-expansion field
$   u = alpha*dT*x,  v = alpha*dT*y,  w = alpha*dT*z:
$   fix T1,T2,T3 of node 1 at (0,0,0)  → u=v=w=0 ✓
$   fix T2,T3    of node 2 at (2,0,0)  → v=0 ✓, w=0 ✓
$   fix T3       of node 3 at (0,2,0)  → w=0 ✓
$
$ Expected (alpha*dT = 1e-5 * 100 = 1e-3 per unit length):
$   node 2 at (2,0,0): T1 = 2e-3 m
$   node 3 at (0,2,0): T2 = 2e-3 m
$   node 4 at (0,0,2): T3 = 2e-3 m
$   Midside nodes (at edge midpoints): displacement = alpha*dT * (x,y,z)
$     node 5 at (1,0,0): T1 = 1e-3 m
$     node 8 at (0,0,1): T3 = 1e-3 m
$   Stress ≈ 0 (quadratic element spans linear fields exactly)
$
SOL 101
CEND
SUBCASE 1
  LABEL = CTETRA10 FREE THERMAL
  LOAD = 1
  SPC = 1
  DISPLACEMENT = ALL
  STRESS = ALL
BEGIN BULK
PARAM,CSVOUT,YES
$ Corner nodes
GRID,1,,0.0,0.0,0.0
GRID,2,,2.0,0.0,0.0
GRID,3,,0.0,2.0,0.0
GRID,4,,0.0,0.0,2.0
$ Midside nodes (at edge midpoints of each corner-to-corner edge)
GRID,5,,1.0,0.0,0.0
GRID,6,,1.0,1.0,0.0
GRID,7,,0.0,1.0,0.0
GRID,8,,0.0,0.0,1.0
GRID,9,,1.0,0.0,1.0
GRID,10,,0.0,1.0,1.0
$ Material: alpha = 1e-5 /°C
MAT1,1,1.0E6,,0.3,0.0,1.0E-5,0.0
PSOLID,1,1
$ Single CTETRA10 (corners 1-4, midsides 5-10 in Nastran order)
$ Midsides: 5=mid(1,2), 6=mid(2,3), 7=mid(1,3), 8=mid(1,4), 9=mid(2,4), 10=mid(3,4)
CTETRA,1,1,1,2,3,4,5,6,+
+,7,8,9,10
$ Minimal BCs — 6 constraints, all compatible with free-expansion field
SPC1,1,123,1
SPC1,1,23,2
SPC1,1,3,3
$ Uniform temperature T = 100 °C on all nodes
TEMP,1,1,100.0
TEMP,1,2,100.0
TEMP,1,3,100.0
TEMP,1,4,100.0
TEMP,1,5,100.0
TEMP,1,6,100.0
TEMP,1,7,100.0
TEMP,1,8,100.0
TEMP,1,9,100.0
TEMP,1,10,100.0
ENDDATA
